*Heading
 MQ-1 Drone 600m/s Building Impact
** Job name: Job-DroneImpact Model name: Drone-Impact
** Generated by: Abaqus/CAE 2025
*Preprint, echo=NO, model=NO, history=NO, contact=NO
**
** PARTS
**
*Part, name=Drone
*Node
      1,  -433.012695,         250.,           0.
      2,  -433.012695,        -250.,           0.
      3,           0.,        -500.,           0.
      4,   433.012695,        -250.,           0.
      5,   433.012695,         250.,           0.
      6,           0.,         500.,           0.
      7,           0.,           0.,           0.
      8,  -433.012695,         250.,         500.
      9,  -433.012695,        -250.,         500.
     10,           0.,        -500.,         500.
     11,   433.012695,        -250.,         500.
     12,   433.012695,         250.,         500.
     13,           0.,         500.,         500.
     14,           0.,           0.,         500.
     15,  -433.012695,         250.,        1000.
     16,  -433.012695,        -250.,        1000.
     17,           0.,        -500.,        1000.
     18,   433.012695,        -250.,        1000.
     19,   433.012695,         250.,        1000.
     20,           0.,         500.,        1000.
** ... 99 like lines cut
*Element, type=C3D8R
 1,  13,  12,  14,   8,   6,   5,   7,   1
 2,  10,  14,  12,  11,   3,   7,   5,   4
 3,  10,   9,   8,  14,   3,   2,   1,   7
 4,  20,  19,  21,  15,  13,  12,  14,   8
 5,  17,  21,  19,  18,  10,  14,  12,  11
 6,  17,  16,  15,  21,  10,   9,   8,  14
 7,  27,  26,  28,  22,  20,  19,  21,  15
 8,  24,  28,  26,  25,  17,  21,  19,  18
 9,  24,  23,  22,  28,  17,  16,  15,  21
10,  34,  33,  35,  29,  27,  26,  28,  22
11,  31,  35,  33,  32,  24,  28,  26,  25
12,  31,  30,  29,  35,  24,  23,  22,  28
13,  41,  40,  42,  36,  34,  33,  35,  29
14,  38,  42,  40,  39,  31,  35,  33,  32
15,  38,  37,  36,  42,  31,  30,  29,  35
16,  48,  47,  49,  43,  41,  40,  42,  36
17,  45,  49,  47,  46,  38,  42,  40,  39
18,  45,  44,  43,  49,  38,  37,  36,  42
19,  55,  54,  56,  50,  48,  47,  49,  43
20,  52,  56,  54,  53,  45,  49,  47,  46
** ... 28 like lines cut
*Nset, nset=_PickedSet2, internal, generate
   1,  119,    1
*Elset, elset=_PickedSet2, internal, generate
  1,  48,   1
** Section: Sec_Drone
*Solid Section, elset=_PickedSet2, controls=EC-1, material=Aluminum_7075
,
*End Part
**  
*Part, name=Wall
*Node
      1,        2500.,       10000.,         500.
      2,        2500.,        9500.,         500.
      3,        2500.,        9000.,         500.
      4,        2500.,        8500.,         500.
      5,        2500.,        8000.,         500.
      6,        2500.,        7500.,         500.
      7,        2500.,        7000.,         500.
      8,        2500.,        6500.,         500.
      9,        2500.,        6000.,         500.
     10,        2500.,        5500.,         500.
     11,        2500.,        5000.,         500.
     12,        2500.,        4500.,         500.
     13,        2500.,        4000.,         500.
     14,        2500.,        3500.,         500.
     15,        2500.,        3000.,         500.
     16,        2500.,        2500.,         500.
     17,        2500.,        2000.,         500.
     18,        2500.,        1500.,         500.
     19,        2500.,        1000.,         500.
     20,        2500.,         500.,         500.
** ... 882 like lines cut
*Element, type=C3D8R
  1,  83,  84, 125, 124,   1,   2,  43,  42
  2,  84,  85, 126, 125,   2,   3,  44,  43
  3,  85,  86, 127, 126,   3,   4,  45,  44
  4,  86,  87, 128, 127,   4,   5,  46,  45
  5,  87,  88, 129, 128,   5,   6,  47,  46
  6,  88,  89, 130, 129,   6,   7,  48,  47
  7,  89,  90, 131, 130,   7,   8,  49,  48
  8,  90,  91, 132, 131,   8,   9,  50,  49
  9,  91,  92, 133, 132,   9,  10,  51,  50
 10,  92,  93, 134, 133,  10,  11,  52,  51
 11,  93,  94, 135, 134,  11,  12,  53,  52
 12,  94,  95, 136, 135,  12,  13,  54,  53
 13,  95,  96, 137, 136,  13,  14,  55,  54
 14,  96,  97, 138, 137,  14,  15,  56,  55
 15,  97,  98, 139, 138,  15,  16,  57,  56
 16,  98,  99, 140, 139,  16,  17,  58,  57
 17,  99, 100, 141, 140,  17,  18,  59,  58
 18, 100, 101, 142, 141,  18,  19,  60,  59
 19, 101, 102, 143, 142,  19,  20,  61,  60
 20, 102, 103, 144, 143,  20,  21,  62,  61
** ... 380 like lines cut
*Nset, nset=_PickedSet2, internal, generate
   1,  902,    1
*Elset, elset=_PickedSet2, internal, generate
   1,  400,    1
*Nset, nset=FixSet
  16,  26,  57,  67,  98, 108, 139, 149, 180, 190, 221, 231, 262, 272, 303, 313
 344, 354, 385, 395, 426, 436, 467, 477, 508, 518, 549, 559, 590, 600, 631, 641
 672, 682, 713, 723, 754, 764, 795, 805, 836, 846, 877, 887
** Section: Sec_Wall
*Solid Section, elset=_PickedSet2, controls=EC-1, material=Concrete_C40
,
*End Part
**  
**
** ASSEMBLY
**
*Assembly, name=Assembly
**  
*Instance, name=Wall, part=Wall
       -250.,           0.,           0.
*End Instance
**  
*Instance, name=Drone, part=Drone
      -1000.,           0.,         250.
      -1000.,           0.,         250.,       -1000.,           1.,         250.,          90.
*End Instance
**  
** Drone node set for initial velocity
*Nset, nset=DroneSet, instance=Drone
1, 2, 3, 4, 5, 6, 7, 8,
9, 10, 11, 12, 13, 14, 15, 16,
17, 18, 19, 20, 21, 22, 23, 24,
25, 26, 27, 28, 29, 30, 31, 32,
33, 34, 35, 36, 37, 38, 39, 40,
41, 42, 43, 44, 45, 46, 47, 48,
49, 50, 51, 52, 53, 54, 55, 56,
57, 58, 59, 60, 61, 62, 63, 64,
65, 66, 67, 68, 69, 70, 71, 72,
73, 74, 75, 76, 77, 78, 79, 80,
81, 82, 83, 84, 85, 86, 87, 88,
89, 90, 91, 92, 93, 94, 95, 96,
97, 98, 99, 100, 101, 102, 103, 104,
105, 106, 107, 108, 109, 110, 111, 112,
113, 114, 115, 116, 117, 118, 119
*End Assembly
** 
** ELEMENT CONTROLS
** 
*Section Controls, name=EC-1, hourglass=ENHANCED
1., 1., 1.
** 
** MATERIALS
** 
*Material, name=Aluminum_7075
*Density
 2.81e-09,
*Elastic
71700., 0.33
*Plastic
503.,   0.
572., 0.05
610.,  0.1
*Material, name=Concrete_C40
*Density
 2.4e-09,
*Elastic
32500., 0.2
*Concrete Damaged Plasticity
38.,   0.1,  1.16, 0.667,    0.
*Concrete Compression Hardening
20.,    0.
38., 0.003
10.,  0.01
*Concrete Tension Stiffening
 3.2,     0.
  1., 0.0005
 0.1,  0.002
*Concrete Compression Damage
  0.,    0.
 0.5, 0.005
 0.9,  0.01
*Concrete Tension Damage
   0.,     0.
  0.7, 0.0005
 0.95,  0.002
** 
** INTERACTION PROPERTIES
** 
*Surface Interaction, name=GenContact
*Friction
0.,
*Surface Behavior, pressure-overclosure=HARD
** 
** BOUNDARY CONDITIONS
** 
** Name: BC_Fix Type: Symmetry/Antisymmetry/Encastre
*Boundary
Wall.FixSet, ENCASTRE
** 
** INTERACTIONS
** 
** Interaction: GeneralContact
*Contact, op=NEW
*Contact Inclusions, ALL EXTERIOR
** ----------------------------------------------------------------
** 
** ----------------------------------------------------------------
** INITIAL CONDITIONS - DRONE VELOCITY
*Initial Conditions, type=VELOCITY
DroneSet, 1, 600000.0
DroneSet, 2, 0.0
DroneSet, 3, 0.0
**
** STEP: Impact
** 
*Step, name=Impact, nlgeom=YES
*Dynamic, Explicit
, 0.015
*Bulk Viscosity
0.06, 1.2
** 
** INTERACTIONS
** 
** Interaction: GeneralContact
*Contact, op=NEW
*Contact Inclusions, ALL EXTERIOR
** 
** OUTPUT REQUESTS
** 
*Restart, write, number interval=1, time marks=NO
** 
** FIELD OUTPUT: F-Output-1
** 
*Output, field, number interval=50
*Node Output
A, U, V
*Element Output, directions=YES
DAMAGEC, DAMAGET, E, PEEQ, S, SDEG, STATUS
** 
** HISTORY OUTPUT: H-Output-1
** 
*Output, history, time interval=0.00015
*Energy Output
ALLAE, ALLIE, ALLKE, ALLPD, ALLSE, ALLVD, ALLWK, ETOTAL
*End Step
